Version 4
SHEET 1 1016 1228
WIRE -176 272 -192 272
WIRE -176 304 -192 304
WIRE -176 336 -192 336
WIRE 608 352 480 352
WIRE -176 368 -192 368
WIRE 528 384 480 384
WIRE -176 400 -192 400
WIRE 176 400 -32 400
WIRE 512 416 480 416
WIRE -176 432 -192 432
WIRE 16 432 -32 432
WIRE -176 464 -192 464
WIRE -176 496 -192 496
WIRE -176 528 -192 528
WIRE 176 576 176 400
WIRE 512 576 512 416
WIRE 512 576 176 576
WIRE -64 768 -64 752
WIRE 16 768 16 752
WIRE 96 768 96 752
WIRE 176 768 176 752
WIRE 256 768 256 752
WIRE 336 768 336 752
WIRE 416 768 416 752
WIRE 496 768 496 752
WIRE 576 768 576 752
WIRE 16 848 -64 848
WIRE 96 848 16 848
WIRE 176 848 96 848
WIRE 256 848 176 848
WIRE 304 848 256 848
WIRE 336 848 304 848
WIRE 416 848 336 848
WIRE 496 848 416 848
WIRE 576 848 496 848
WIRE 304 880 304 848
FLAG -192 528 VDD
IOPIN -192 528 In
FLAG 608 352 VDD
IOPIN 608 352 In
FLAG 528 384 Freq_out
IOPIN 528 384 Out
FLAG -192 496 S7
IOPIN -192 496 In
FLAG -192 464 S6
IOPIN -192 464 In
FLAG -192 432 S5
IOPIN -192 432 In
FLAG -192 400 S4
IOPIN -192 400 In
FLAG -192 368 S3
IOPIN -192 368 In
FLAG -192 336 S2
IOPIN -192 336 In
FLAG -192 304 S1
IOPIN -192 304 In
FLAG -192 272 S0
IOPIN -192 272 In
FLAG 304 880 0
FLAG 576 752 VDD
IOPIN 576 752 In
FLAG -64 752 S0
IOPIN -64 752 In
FLAG 16 752 S1
IOPIN 16 752 In
FLAG 96 752 S2
IOPIN 96 752 In
FLAG 176 752 S3
IOPIN 176 752 In
FLAG 256 752 S4
IOPIN 256 752 In
FLAG 336 752 S5
IOPIN 336 752 In
FLAG 416 752 S6
IOPIN 416 752 In
FLAG 496 752 S7
IOPIN 496 752 In
SYMBOL 3_DAC_winterg -112 400 R0
WINDOW 0 8 -152 Invisible 2
WINDOW 39 -27 165 Left 2
SYMATTR InstName X1
SYMBOL 2_oscillator_winterg 384 400 R0
WINDOW 0 8 -120 Invisible 2
SYMATTR InstName X2
SYMBOL voltage -64 752 R0
WINDOW 3 24 38 Invisible 2
SYMATTR Value PULSE(0 3 0 1ns 1ns 100us 0.0 1)
SYMATTR InstName V0
SYMBOL voltage 16 752 R0
WINDOW 3 24 96 Invisible 2
SYMATTR Value PULSE(0 3 100us 1ns 1ns 100us 0 1)
SYMATTR InstName V1
SYMBOL voltage 96 752 R0
WINDOW 3 24 96 Invisible 2
SYMATTR Value PULSE(0 3 200us 1ns 1ns 100us 0 1)
SYMATTR InstName V2
SYMBOL voltage 176 752 R0
WINDOW 3 24 96 Invisible 2
SYMATTR Value PULSE(0 3 300us 1ns 1ns 100us 0 1)
SYMATTR InstName V3
SYMBOL voltage 256 752 R0
WINDOW 3 24 96 Invisible 2
SYMATTR Value PULSE(0 3 400us 1ns 1ns 100us 0 1)
SYMATTR InstName V4
SYMBOL voltage 336 752 R0
SYMATTR InstName V5
SYMATTR Value 0
SYMBOL voltage 416 752 R0
SYMATTR InstName V6
SYMATTR Value 0
SYMBOL voltage 496 752 R0
SYMATTR InstName V7
SYMATTR Value 0
SYMBOL voltage 576 752 R0
SYMATTR InstName V8
SYMATTR Value 3v
SYMATTR SpiceLine Rser=0
TEXT 664 208 Left 2 !.inc mosfets.sub\n.ic V(Freq_out)=2.5\n.tran 0 26us 25us
TEXT 168 664 Left 3 ;Test Voltages
TEXT 672 176 Left 3 ;Test Script
TEXT -8 320 Left 2 ;Small test\ncurrent resistor
