Version 4
SHEET 1 1016 896
WIRE -176 272 -192 272
WIRE -176 304 -192 304
WIRE -176 336 -192 336
WIRE 496 352 480 352
WIRE -176 368 -192 368
WIRE 496 384 480 384
WIRE -176 400 -192 400
WIRE -16 400 -32 400
WIRE 496 416 480 416
WIRE -176 432 -192 432
WIRE -176 464 -192 464
WIRE -176 496 -192 496
WIRE -176 528 -192 528
WIRE -64 768 -64 752
WIRE 16 768 16 752
WIRE 96 768 96 752
WIRE 176 768 176 752
WIRE 256 768 256 752
WIRE 336 768 336 752
WIRE 416 768 416 752
WIRE 496 768 496 752
WIRE 576 768 576 752
WIRE 16 848 -64 848
WIRE 96 848 16 848
WIRE 176 848 96 848
WIRE 256 848 176 848
WIRE 304 848 256 848
WIRE 336 848 304 848
WIRE 416 848 336 848
WIRE 496 848 416 848
WIRE 576 848 496 848
WIRE 304 880 304 848
FLAG -192 528 VDD
IOPIN -192 528 In
FLAG 496 352 VDD
IOPIN 496 352 In
FLAG 496 384 Freq_out
IOPIN 496 384 Out
FLAG -192 496 S7
IOPIN -192 496 In
FLAG -192 464 S6
IOPIN -192 464 In
FLAG -192 432 S5
IOPIN -192 432 In
FLAG -192 400 S4
IOPIN -192 400 In
FLAG -192 368 S3
IOPIN -192 368 In
FLAG -192 336 S2
IOPIN -192 336 In
FLAG -192 304 S1
IOPIN -192 304 In
FLAG -192 272 S0
IOPIN -192 272 In
FLAG 304 880 0
FLAG 576 752 VDD
IOPIN 576 752 In
FLAG -64 752 S0
IOPIN -64 752 In
FLAG 16 752 S1
IOPIN 16 752 In
FLAG 96 752 S2
IOPIN 96 752 In
FLAG 176 752 S3
IOPIN 176 752 In
FLAG 256 752 S4
IOPIN 256 752 In
FLAG 336 752 S5
IOPIN 336 752 In
FLAG 416 752 S6
IOPIN 416 752 In
FLAG 496 752 S7
IOPIN 496 752 In
FLAG -16 400 Vmirror
IOPIN -16 400 BiDir
FLAG 496 416 Vmirror
IOPIN 496 416 BiDir
SYMBOL 3_DAC_winterg -112 400 R0
WINDOW 0 8 -152 Invisible 2
WINDOW 39 0 0 Left 2
SYMATTR InstName X1
SYMBOL 2_oscillator_winterg 384 400 R0
WINDOW 0 8 -120 Invisible 2
WINDOW 39 0 0 Left 2
SYMATTR InstName X2
SYMBOL voltage -64 752 R0
SYMATTR InstName V0
SYMBOL voltage 16 752 R0
SYMATTR InstName V1
SYMBOL voltage 96 752 R0
SYMATTR InstName V2
SYMBOL voltage 176 752 R0
SYMATTR InstName V3
SYMBOL voltage 256 752 R0
SYMATTR InstName V4
SYMBOL voltage 336 752 R0
SYMATTR InstName V5
SYMBOL voltage 416 752 R0
SYMATTR InstName V6
SYMBOL voltage 496 752 R0
SYMATTR InstName V7
SYMBOL voltage 576 752 R0
SYMATTR InstName VDD
SYMATTR Value 3v
TEXT 664 208 Left 2 !.inc mosfets.sub
TEXT 168 664 Left 3 ;Test Voltages
TEXT 672 176 Left 3 ;Test Script
