Version 4
SHEET 1 2164 680
WIRE -128 -592 -176 -592
WIRE 400 -592 352 -592
WIRE 928 -592 880 -592
WIRE -224 -560 -384 -560
WIRE 304 -560 144 -560
WIRE 832 -560 672 -560
WIRE -384 -512 -384 -560
WIRE -176 -512 -176 -544
WIRE -128 -512 -176 -512
WIRE 352 -512 352 -544
WIRE 400 -512 352 -512
WIRE 880 -512 880 -544
WIRE 928 -512 880 -512
WIRE -128 -464 -128 -512
WIRE -128 -464 -176 -464
WIRE 400 -464 400 -512
WIRE 400 -464 352 -464
WIRE 928 -464 928 -512
WIRE 928 -464 880 -464
WIRE -176 -400 -176 -416
WIRE 48 -400 -176 -400
WIRE 144 -400 144 -560
WIRE 144 -400 48 -400
WIRE 352 -400 352 -416
WIRE 592 -400 352 -400
WIRE 672 -400 672 -560
WIRE 672 -400 592 -400
WIRE 880 -400 880 -416
WIRE 1216 -400 880 -400
WIRE -176 -384 -176 -400
WIRE 352 -384 352 -400
WIRE 880 -384 880 -400
WIRE 48 -368 48 -400
WIRE 592 -368 592 -400
WIRE -128 -336 -176 -336
WIRE 400 -336 352 -336
WIRE 928 -336 880 -336
WIRE -384 -304 -384 -512
WIRE -224 -304 -384 -304
WIRE 144 -304 144 -400
WIRE 304 -304 144 -304
WIRE 672 -304 672 -400
WIRE 832 -304 672 -304
WIRE -176 -256 -176 -288
WIRE 352 -256 352 -288
WIRE 880 -256 880 -288
WIRE 1216 -224 1216 -400
WIRE 1216 -224 -112 -224
WIRE 192 -64 144 -64
WIRE 720 -64 672 -64
WIRE 96 -32 -64 -32
WIRE 624 -32 464 -32
WIRE -112 -16 -112 -224
WIRE -64 -16 -64 -32
WIRE -64 -16 -112 -16
WIRE 144 16 144 -16
WIRE 192 16 144 16
WIRE 672 16 672 -16
WIRE 720 16 672 16
WIRE 192 64 192 16
WIRE 192 64 144 64
WIRE 720 64 720 16
WIRE 720 64 672 64
WIRE 144 128 144 112
WIRE 368 128 144 128
WIRE 464 128 464 -32
WIRE 464 128 368 128
WIRE 672 128 672 112
WIRE 1648 128 672 128
WIRE 144 144 144 128
WIRE 672 144 672 128
WIRE 368 160 368 128
WIRE 1648 160 1648 128
WIRE 1888 160 1648 160
WIRE 192 192 144 192
WIRE 720 192 672 192
WIRE -64 224 -64 -16
WIRE 96 224 -64 224
WIRE 464 224 464 128
WIRE 624 224 464 224
WIRE 144 272 144 240
WIRE 672 272 672 240
FLAG -176 -256 0
FLAG -176 -640 VDD
IOPIN -176 -640 BiDir
FLAG -128 -592 0
FLAG -224 -432 V_current
IOPIN -224 -432 BiDir
FLAG -384 -512 Vout
IOPIN -384 -512 BiDir
FLAG -128 -336 0
FLAG 352 -256 0
FLAG 352 -640 VDD
IOPIN 352 -640 BiDir
FLAG 400 -592 0
FLAG 304 -432 V_current
IOPIN 304 -432 BiDir
FLAG 400 -336 0
FLAG 880 -256 0
FLAG 880 -640 VDD
IOPIN 880 -640 BiDir
FLAG 928 -592 0
FLAG 832 -432 V_current
IOPIN 832 -432 BiDir
FLAG 928 -336 0
FLAG 144 272 0
FLAG 144 -112 VDD
IOPIN 144 -112 BiDir
FLAG 192 -64 0
FLAG 96 96 V_current
IOPIN 96 96 BiDir
FLAG 192 192 0
FLAG 672 272 0
FLAG 672 -112 VDD
IOPIN 672 -112 BiDir
FLAG 720 -64 0
FLAG 624 96 V_current
IOPIN 624 96 BiDir
FLAG 720 192 0
FLAG 1888 160 Vout
IOPIN 1888 160 BiDir
SYMBOL pmos4 -224 -512 R0
WINDOW 123 114 38 Left 2
SYMATTR Value2 lg=1.5u,wg=6u
SYMATTR InstName M1
SYMATTR Value PFET
SYMATTR Prefix X
SYMBOL nmos4 -224 -384 R0
WINDOW 123 90 103 Left 2
WINDOW 3 -51 65 Left 2
SYMATTR Value2 lg=1.5u,wg=10u
SYMATTR Value NFET
SYMATTR InstName M2
SYMATTR Prefix X
SYMBOL pmos4 -224 -640 R0
WINDOW 123 127 6 Left 2
SYMATTR Value2 lg=1.5u,wg=10u
SYMATTR InstName M3
SYMATTR Value PFET
SYMATTR Prefix X
SYMBOL pmos4 304 -512 R0
WINDOW 123 114 38 Left 2
SYMATTR Value2 lg=1.5u,wg=6u
SYMATTR InstName M4
SYMATTR Value PFET
SYMATTR Prefix X
SYMBOL nmos4 304 -384 R0
WINDOW 123 90 103 Left 2
WINDOW 3 -51 65 Left 2
SYMATTR Value2 lg=1.5u,wg=10u
SYMATTR Value NFET
SYMATTR InstName M5
SYMATTR Prefix X
SYMBOL pmos4 304 -640 R0
WINDOW 123 127 6 Left 2
SYMATTR Value2 lg=1.5u,wg=10u
SYMATTR InstName M6
SYMATTR Value PFET
SYMATTR Prefix X
SYMBOL pmos4 832 -512 R0
WINDOW 123 114 38 Left 2
SYMATTR Value2 lg=1.5u,wg=6u
SYMATTR InstName M7
SYMATTR Value PFET
SYMATTR Prefix X
SYMBOL nmos4 832 -384 R0
WINDOW 123 90 103 Left 2
WINDOW 3 -51 65 Left 2
SYMATTR Value2 lg=1.5u,wg=10u
SYMATTR Value NFET
SYMATTR InstName M8
SYMATTR Prefix X
SYMBOL pmos4 832 -640 R0
WINDOW 123 127 6 Left 2
SYMATTR Value2 lg=1.5u,wg=10u
SYMATTR InstName M9
SYMATTR Value PFET
SYMATTR Prefix X
SYMBOL pmos4 96 16 R0
WINDOW 123 114 38 Left 2
SYMATTR Value2 lg=1.5u,wg=6u
SYMATTR InstName M10
SYMATTR Value PFET
SYMATTR Prefix X
SYMBOL nmos4 96 144 R0
WINDOW 123 90 103 Left 2
WINDOW 3 -51 65 Left 2
SYMATTR Value2 lg=1.5u,wg=10u
SYMATTR Value NFET
SYMATTR InstName M11
SYMATTR Prefix X
SYMBOL pmos4 96 -112 R0
WINDOW 123 127 6 Left 2
SYMATTR Value2 lg=1.5u,wg=10u
SYMATTR InstName M12
SYMATTR Value PFET
SYMATTR Prefix X
SYMBOL pmos4 624 16 R0
WINDOW 123 114 38 Left 2
SYMATTR Value2 lg=1.5u,wg=6u
SYMATTR InstName M13
SYMATTR Value PFET
SYMATTR Prefix X
SYMBOL nmos4 624 144 R0
WINDOW 123 90 103 Left 2
WINDOW 3 -51 65 Left 2
SYMATTR Value2 lg=1.5u,wg=10u
SYMATTR Value NFET
SYMATTR InstName M14
SYMATTR Prefix X
SYMBOL pmos4 624 -112 R0
WINDOW 123 127 6 Left 2
SYMATTR Value2 lg=1.5u,wg=10u
SYMATTR InstName M15
SYMATTR Value PFET
SYMATTR Prefix X
TEXT -400 8 Left 2 !; Setup mosfet libraries\n.include mosfets.sub
TEXT -368 -616 Left 2 ;Inverter_1
TEXT 160 -616 Left 2 ;Inverter_1
TEXT 688 -616 Left 2 ;Inverter_1
TEXT -48 -88 Left 2 ;Inverter_1
TEXT 480 -88 Left 2 ;Inverter_1
